[Format]      =  4.0
[Frequency]   =  12000
[Precision]   =  1e-008
[MinAngle]    =  30
[DoSmartMesh] =  1
[Depth]       =  1
[LengthUnits] =  millimeters
[ProblemType] =  axisymmetric
[Coordinates] =  cartesian
[ACSolver]    =  0
[PrevType]    =  0
[PrevSoln]    =  ""
[Comment]     =  "prova con gemini"
[PointProps]   = 0
[BdryProps]   = 1
  <BeginBdry>
    <BdryName> = "inf"
    <BdryType> = 0
    <A_0> = 0
    <A_1> = 0
    <A_2> = 0
    <Phi> = 0
    <c0> = 0
    <c0i> = 0
    <c1> = 0
    <c1i> = 0
    <Mu_ssd> = 0
    <Sigma_ssd> = 0
    <innerangle> = 0
    <outerangle> = 0
  <EndBdry>
[BlockProps]  = 8
  <BeginBlock>
    <BlockName> = "Air"
    <Mu_x> = 1
    <Mu_y> = 1
    <H_c> = 0
    <H_cAngle> = 0
    <J_re> = 0
    <J_im> = 0
    <Sigma> = 0
    <d_lam> = 0
    <Phi_h> = 0
    <Phi_hx> = 0
    <Phi_hy> = 0
    <LamType> = 0
    <LamFill> = 1
    <NStrands> = 0
    <WireD> = 0
    <BHPoints> = 0
  <EndBlock>
  <BeginBlock>
    <BlockName> = "plate_1mm"
    <Mu_x> = 1
    <Mu_y> = 1
    <H_c> = 0
    <H_cAngle> = 0
    <J_re> = 0
    <J_im> = 0
    <Sigma> = 58
    <d_lam> = 1
    <Phi_h> = 0
    <Phi_hx> = 0
    <Phi_hy> = 0
    <LamType> = 2
    <LamFill> = 1
    <NStrands> = 1
    <WireD> = 1
    <BHPoints> = 0
  <EndBlock>
  <BeginBlock>
    <BlockName> = "Copper"
    <Mu_x> = 1
    <Mu_y> = 1
    <H_c> = 0
    <H_cAngle> = 0
    <J_re> = 0
    <J_im> = 0
    <Sigma> = 58
    <d_lam> = 0
    <Phi_h> = 0
    <Phi_hx> = 0
    <Phi_hy> = 0
    <LamType> = 0
    <LamFill> = 1
    <NStrands> = 0
    <WireD> = 0
    <BHPoints> = 0
  <EndBlock>
  <BeginBlock>
    <BlockName> = "M-19 Steel"
    <Mu_x> = 4416
    <Mu_y> = 4416
    <H_c> = 0
    <H_cAngle> = 0
    <J_re> = 0
    <J_im> = 0
    <Sigma> = 1.8999999999999999
    <d_lam> = 0.63500000000000001
    <Phi_h> = 0
    <Phi_hx> = 0
    <Phi_hy> = 0
    <LamType> = 0
    <LamFill> = 0.97999999999999998
    <NStrands> = 0
    <WireD> = 0
    <BHPoints> = 47
      0	0
      0.050000000000000003	15.120714
      0.10000000000000001	22.718292000000002
      0.14999999999999999	27.842732999999999
      0.20000000000000001	31.871434000000001
      0.25	35.365043999999997
      0.29999999999999999	38.600588000000002
      0.34999999999999998	41.736201999999999
      0.40000000000000002	44.873978999999999
      0.45000000000000001	48.087806999999998
      0.5	51.437235999999999
      0.55000000000000004	54.975220999999998
      0.59999999999999998	58.752992999999996
      0.65000000000000002	62.823644000000002
      0.69999999999999996	67.245284999999996
      0.75	72.084406000000001
      0.80000000000000004	77.420100000000005
      0.84999999999999998	83.350020999999998
      0.90000000000000002	89.999611999999999
      0.94999999999999996	97.537352999999996
      1	106.20140600000001
      1.05	116.34846400000001
      1.1000000000000001	128.54732899999999
      1.1499999999999999	143.76543100000001
      1.2	163.75416899999999
      1.25	191.86815799999999
      1.3	234.833507
      1.3500000000000001	306.50976900000001
      1.3999999999999999	435.255202
      1.45	674.911968
      1.5	1108.3255690000001
      1.55	1813.085468
      1.6000000000000001	2801.2174209999998
      1.6499999999999999	4053.6531169999998
      1.7	5591.10689
      1.75	7448.318413
      1.8	9708.81567
      1.8500000000000001	12486.931615
      1.8999999999999999	16041.483644
      1.95	21249.420623999998
      2	31313.495878000002
      2.0499999999999998	53589.446877000002
      2.1000000000000001	88477.484601000004
      2.1499999999999999	124329.41054
      2.2000000000000002	159968.5693
      2.25	197751.604272
      2.2999999999999998	234024.75134700001
  <EndBlock>
  <BeginBlock>
    <BlockName> = "1010 Steel"
    <Mu_x> = 902.60000000000002
    <Mu_y> = 902.60000000000002
    <H_c> = 0
    <H_cAngle> = 0
    <J_re> = 0
    <J_im> = 0
    <Sigma> = 5.7999999999999998
    <d_lam> = 0
    <Phi_h> = 20
    <Phi_hx> = 0
    <Phi_hy> = 0
    <LamType> = 0
    <LamFill> = 1
    <NStrands> = 0
    <WireD> = 0
    <BHPoints> = 38
      0	0
      0.21186199999999999	79.577472
      0.26566499999999998	100.182101
      0.33237699999999998	126.121793
      0.414377	158.77793
      0.51381100000000002	199.88957099999999
      0.63189899999999999	251.646061
      0.76778400000000002	316.80362000000002
      0.917018	398.83212800000001
      1.0703530000000001	502.09990099999999
      1.2142550000000001	632.10632499999997
      1.3346370000000001	795.77471500000001
      1.4229810000000001	1001.821011
      1.480634	1261.2179289999999
      1.5172140000000001	1587.779301
      1.5445150000000001	1998.89571
      1.571296	2516.4606050000002
      1.6020490000000001	3168.036204
      1.638404	3988.3212819999999
      1.68049	5020.9990129999996
      1.727311	6321.0632500000002
      1.776659	7957.747155
      1.8254010000000001	10018.210114
      1.870557	12612.179292999999
      1.910809	15877.793009999999
      1.947222	19988.957103000001
      1.9823280000000001	25164.606051999999
      2.0182519999999999	31680.362036999999
      2.0553979999999998	39883.212823000002
      2.0925449999999999	50209.990126999997
      2.1280950000000001	63210.632496999999
      2.1616119999999999	79577.471546000001
      2.1946439999999998	100182.101136
      2.2303389999999998	126121.79292599999
      2.272386	158777.930096
      2.3242820000000002	199889.57102999999
      2.3893559999999998	251646.06052200001
      2.471238	316803.62037000002
  <EndBlock>
  <BeginBlock>
    <BlockName> = "N35"
    <Mu_x> = 1.05
    <Mu_y> = 1.05
    <H_c> = 905659
    <H_cAngle> = 0
    <J_re> = 0
    <J_im> = 0
    <Sigma> = 0.66700000000000004
    <d_lam> = 0
    <Phi_h> = 0
    <Phi_hx> = 0
    <Phi_hy> = 0
    <LamType> = 0
    <LamFill> = 1
    <NStrands> = 0
    <WireD> = 0
    <BHPoints> = 0
  <EndBlock>
  <BeginBlock>
    <BlockName> = "Supermalloy"
    <Mu_x> = 529095
    <Mu_y> = 529095
    <H_c> = 0
    <H_cAngle> = 0
    <J_re> = 0
    <J_im> = 0
    <Sigma> = 1.7
    <d_lam> = 0
    <Phi_h> = 0
    <Phi_hx> = 0
    <Phi_hy> = 0
    <LamType> = 0
    <LamFill> = 1
    <NStrands> = 0
    <WireD> = 0
    <BHPoints> = 12
      0	0
      0.45000099999999998	0.79577500000000001
      0.57500200000000001	1.59155
      0.62500299999999998	2.3873250000000001
      0.65000400000000003	3.1831
      0.680006	4.7746490000000001
      0.70000799999999996	6.3662000000000001
      0.72567300000000001	10.138479999999999
      0.744506	15.68595
      0.76002999999999998	23.873249999999999
      0.78046000000000004	48
      0.78510000000000002	79.577500000000001
  <EndBlock>
  <BeginBlock>
    <BlockName> = "Soft magnetic ferrite (Fe-Ni-Zn-V)"
    <Mu_x> = 1
    <Mu_y> = 1
    <H_c> = 0
    <H_cAngle> = 0
    <J_re> = 0
    <J_im> = 0
    <Sigma> = 0
    <d_lam> = 0
    <Phi_h> = 0
    <Phi_hx> = 0
    <Phi_hy> = 0
    <LamType> = 0
    <LamFill> = 1
    <NStrands> = 0
    <WireD> = 0
    <BHPoints> = 27
      0	0
      0.068850999999999996	44.635198000000003
      0.079230999999999996	47.996938
      0.096629999999999994	54.360481
      0.104285	57.254136000000003
      0.11792	63.513925999999998
      0.123374	66.205406999999994
      0.15091199999999999	83.184011999999996
      0.191749	128.638642
      0.20263500000000001	150.32185200000001
      0.23902399999999999	280.29567900000001
      0.24393599999999999	307.76197500000001
      0.245556	317.50148100000001
      0.26724399999999998	486.03790099999998
      0.29056500000000002	775.60827200000006
      0.29619000000000001	869.47777799999994
      0.31289600000000001	1359.07284
      0.31335600000000002	1373.2691359999999
      0.33594200000000002	2431.4518520000001
      0.36483900000000002	5699.1765429999996
      0.36848199999999998	6389.154321
      0.37676599999999999	8458.0074069999991
      0.47711700000000001	61532.617284
      0.49488100000000002	73419.641975000006
      0.66698999999999997	197003.70370400001
      0.82853900000000003	321027.901235
      0.83272000000000002	324350
  <EndBlock>
[CircuitProps]  = 1
  <BeginCircuit>
    <CircuitName> = "primo_solenoide"
    <TotalAmps_re> = 1000
    <TotalAmps_im> = 0
    <CircuitType> = 1
  <EndCircuit>
[NumPoints] = 12
25	-60	0	0
25	60	0	0
35	60	0	0
35	-60	0	0
0	-200	0	0
200	-200	0	0
200	200	0	0
0	200	0	0
0	-60	0	0
24	-60	0	0
24	60	0	0
0	60	0	0
[NumSegments] = 13
1	2	-1	0	0	0
3	2	-1	0	0	0
3	0	-1	0	0	0
0	1	-1	0	0	0
7	6	-1	1	0	0
6	5	-1	1	0	0
5	4	-1	1	0	0
7	11	-1	0	0	0
8	4	-1	0	0	0
11	8	-1	0	0	0
11	10	-1	0	0	0
10	9	-1	0	0	0
9	8	-1	0	0	0
[NumArcSegments] = 0
[NumHoles] = 0
[NumBlockLabels] = 3
97	73	1	10	1	0	0	1	0
30	10	3	-1	1	0	0	5	0
12	30.100000000000001	8	1	1	0	0	1	0
